@<TRIPOS>MOLECULE
/media/arga/DATA1000/multi_ligand_complex/complex_multiligands/complex_03/lig_C00042287_A.pdb
 57 64 0 0 0
SMALL
GASTEIGER

@<TRIPOS>ATOM
      1  C         14.6900   62.4130   57.7070 C.ar    1  UNA1       -0.0611
      2  C         14.1640   62.3030   59.0580 C.ar    1  UNA1       -0.0597
      3  C         14.9100   62.5210   60.1550 C.ar    1  UNA1       -0.0357
      4  C         16.3320   62.8840   59.9750 C.ar    1  UNA1        0.0720
      5  C         16.8330   62.9590   58.5980 C.ar    1  UNA1        0.0099
      6  C         15.9730   62.7340   57.4770 C.ar    1  UNA1       -0.0519
      7  N         17.1990   63.1740   60.8910 N.ar    1  UNA1       -0.2482
      8  C         18.3810   63.4460   60.2130 C.ar    1  UNA1        0.0843
      9  C         18.1060   63.3470   58.7700 C.ar    1  UNA1        0.0179
     10  C         23.6170   64.4830   62.9780 C.ar    1  UNA1       -0.0610
     11  C         22.7700   64.4370   64.1020 C.ar    1  UNA1       -0.0600
     12  C         21.3930   64.2250   63.9590 C.ar    1  UNA1       -0.0401
     13  C         20.8930   64.0430   62.6860 C.ar    1  UNA1        0.0389
     14  C         21.7430   64.1260   61.5820 C.ar    1  UNA1        0.0409
     15  C         23.1040   64.3290   61.6910 C.ar    1  UNA1       -0.0494
     16  N         19.5710   63.9080   62.2780 N.pl3   1  UNA1       -0.3239
     17  C         19.4910   63.7770   60.8990 C.3     1  UNA1        0.1725
     18  C         20.9060   63.9440   60.3870 C.2     1  UNA1        0.1970
     19  O         21.3400   63.8980   59.2580 O.2     1  UNA1       -0.2892
     20  H         18.8340   63.5720   62.8800 H       1  UNA1        0.1475
     21  C         21.3380   61.2000   56.1970 C.ar    1  UNA1       -0.0611
     22  C         21.8600   62.0450   55.2200 C.ar    1  UNA1       -0.0598
     23  C         21.4180   63.3650   55.1000 C.ar    1  UNA1       -0.0378
     24  C         20.4340   63.8020   55.9930 C.ar    1  UNA1        0.0475
     25  C         19.8940   62.9810   56.9840 C.ar    1  UNA1        0.0081
     26  C         20.3570   61.6530   57.0870 C.ar    1  UNA1       -0.0520
     27  N         19.8200   65.0300   56.1000 N.ar    1  UNA1       -0.3524
     28  C         18.8880   65.0210   57.1090 C.ar    1  UNA1        0.0776
     29  C         18.9440   63.7710   57.6990 C.ar    1  UNA1        0.0192
     30  H         20.0090   65.8200   55.4980 H       1  UNA1        0.1660
     31  C         14.8250   69.4140   57.6330 C.ar    1  UNA1       -0.0610
     32  C         15.7240   69.8050   58.6450 C.ar    1  UNA1       -0.0597
     33  C         16.8790   69.0610   58.9130 C.ar    1  UNA1       -0.0356
     34  C         17.1160   67.9280   58.1560 C.ar    1  UNA1        0.0756
     35  C         16.2070   67.5610   57.1630 C.ar    1  UNA1        0.0492
     36  C         15.0610   68.2680   56.8720 C.ar    1  UNA1       -0.0488
     37  N         18.2110   67.0440   58.2740 N.2     1  UNA1       -0.2412
     38  C         18.0170   66.1120   57.3870 C.2     1  UNA1        0.1355
     39  C         16.7420   66.3280   56.6090 C.2     1  UNA1        0.2153
     40  O         16.2970   65.6100   55.7510 O.2     1  UNA1       -0.2849
     41  H3        14.0270   62.2310   56.8610 H       1  UNA1        0.0618
     42  H4        13.1160   62.0310   59.1870 H       1  UNA1        0.0618
     43  H5        14.4780   62.4320   61.1520 H       1  UNA1        0.0639
     44  H6        16.3510   62.8210   56.4580 H       1  UNA1        0.0624
     45  H7        24.6870   64.6410   63.1160 H       1  UNA1        0.0618
     46  H8        23.1920   64.5680   65.0980 H       1  UNA1        0.0618
     47  H9        20.7350   64.2040   64.8280 H       1  UNA1        0.0636
     48  H10       23.7470   64.3670   60.8120 H       1  UNA1        0.0625
     49  H11       21.6980   60.1740   56.2690 H       1  UNA1        0.0618
     50  H12       22.6250   61.6710   54.5390 H       1  UNA1        0.0618
     51  H13       21.8250   64.0300   54.3380 H       1  UNA1        0.0638
     52  H14       19.9560   60.9870   57.8510 H       1  UNA1        0.0624
     53  H15       13.9350   70.0130   57.4420 H       1  UNA1        0.0618
     54  H16       15.5170   70.7020   59.2290 H       1  UNA1        0.0618
     55  H17       17.5720   69.3660   59.6970 H       1  UNA1        0.0639
     56  H18       14.3740   67.9490   56.0880 H       1  UNA1        0.0625
     57 H_fix57      18.6829   63.9753   60.1950 H       1 UNA1       0.0000
@<TRIPOS>BOND
     1     1     6   ar
     2     1     2   ar
     3     1    41    1
     4     2     3   ar
     5     2    42    1
     6     3     4   ar
     7     3    43    1
     8     4     5   ar
     9     4     7   ar
    10     5     9   ar
    11     5     6   ar
    12     6    44    1
    13     7     8   ar
    14     8     9   ar
    15     8    17    1
    16     9    29    1
    17    10    15   ar
    18    10    11   ar
    19    10    45    1
    20    11    12   ar
    21    11    46    1
    22    12    13   ar
    23    12    47    1
    24    13    16    1
    25    13    14   ar
    26    14    18    1
    27    14    15   ar
    28    15    48    1
    29    16    20    1
    30    16    17    1
    31    17    18    1
    32    18    19    2
    33    21    22   ar
    34    21    26   ar
    35    21    49    1
    36    22    23   ar
    37    22    50    1
    38    23    24   ar
    39    23    51    1
    40    24    27   ar
    41    24    25   ar
    42    25    29   ar
    43    25    26   ar
    44    26    52    1
    45    27    30    1
    46    27    28   ar
    47    28    29   ar
    48    28    38    1
    49    31    36   ar
    50    31    32   ar
    51    31    53    1
    52    32    33   ar
    53    32    54    1
    54    33    34   ar
    55    33    55    1
    56    34    35   ar
    57    34    37    1
    58    35    36   ar
    59    35    39    1
    60    36    56    1
    61    37    38    2
    62    38    39    1
    63    39    40    2
    64    17    57    1
